/*--------------------------------*- C++ -*----------------------------------*\
  =========                 |
  \\      /  F ield         | OpenFOAM: The Open Source CFD Toolbox
   \\    /   O peration     | Website:  https://openfoam.org
    \\  /    A nd           | Version:  13
     \\/     M anipulation  |
\*---------------------------------------------------------------------------*/
FoamFile
{
    format      binary;
    class       polyBoundaryMesh;
    location    "constant/polyMesh";
    object      boundary;
}
// * * * * * * * * * * * * * * * * * * * * * * * * * * * * * * * * * * * * * //

6
(
    top
    {
        type            wall;
        inGroups        List<word> 1(wall);
        nFaces          150;
        startFace       29750;
    }
    left
    {
        type            wall;
        inGroups        List<word> 1(wall);
        nFaces          100;
        startFace       29900;
    }
    right
    {
        type            wall;
        inGroups        List<word> 1(wall);
        nFaces          100;
        startFace       30000;
    }
    bottom
    {
        type            wall;
        inGroups        List<word> 1(wall);
        nFaces          150;
        startFace       30100;
    }
    front
    {
        type            empty;
        inGroups        List<word> 1(empty);
        nFaces          15000;
        startFace       30250;
    }
    back
    {
        type            empty;
        inGroups        List<word> 1(empty);
        nFaces          15000;
        startFace       45250;
    }
)

// ************************************************************************* //
