/*--------------------------------*- C++ -*----------------------------------*\
  =========                 |
  \\      /  F ield         | OpenFOAM: The Open Source CFD Toolbox
   \\    /   O peration     | Website:  https://openfoam.org
    \\  /    A nd           | Version:  13
     \\/     M anipulation  |
\*---------------------------------------------------------------------------*/
FoamFile
{
    format      ascii;
    class       dictionary;
    location    "constant";
    object      phaseChangeProperties;
}
// * * * * * * * * * * * * * * * * * * * * * * * * * * * * * * * * * * * * * //

phase   bismuth;

/*
alphaSolidT table
(
    (544 1)
    (545 0)
);
*/
alphaSolidT 
{
    type    errorFunction;
    Tsol    544;
    Tliq    545;
}

L       44600;

Cu      100000;

relax   0.7;

// ************************************************************************* //