/*--------------------------------*- C++ -*----------------------------------*\
  =========                 |
  \\      /  F ield         | OpenFOAM: The Open Source CFD Toolbox
   \\    /   O peration     | Website:  https://openfoam.org
    \\  /    A nd           | Version:  13
     \\/     M anipulation  |
\*---------------------------------------------------------------------------*/
FoamFile
{
    format      ascii;
    class       dictionary;
    location    "system";
    object      setFieldsDict;
}
// * * * * * * * * * * * * * * * * * * * * * * * * * * * * * * * * * * * * * //

defaultValues
{
    alpha.water 1;
    p_rgh       1e5;
    p           1e5;
    T           300;
}

zones
{
    air
    {
        type        box;

        box         (-10 1 -1) (10 10 1);

        values
        {
            alpha.water 0;
        }
    }
}

// ************************************************************************* //
