/*--------------------------------*- C++ -*----------------------------------*\
  =========                 |
  \\      /  F ield         | OpenFOAM: The Open Source CFD Toolbox
   \\    /   O peration     | Website:  https://openfoam.org
    \\  /    A nd           | Version:  13
     \\/     M anipulation  |
\*---------------------------------------------------------------------------*/
FoamFile
{
    format      binary;
    class       polyBoundaryMesh;
    location    "constant/polyMesh";
    object      boundary;
}
// * * * * * * * * * * * * * * * * * * * * * * * * * * * * * * * * * * * * * //

6
(
    top
    {
        type            wall;
        inGroups        List<word> 1(wall);
        nFaces          100;
        startFace       23780;
    }
    left
    {
        type            wall;
        inGroups        List<word> 1(wall);
        nFaces          120;
        startFace       23880;
    }
    right
    {
        type            wall;
        inGroups        List<word> 1(wall);
        nFaces          120;
        startFace       24000;
    }
    bottom
    {
        type            wall;
        inGroups        List<word> 1(wall);
        nFaces          100;
        startFace       24120;
    }
    front
    {
        type            empty;
        inGroups        List<word> 1(empty);
        nFaces          12000;
        startFace       24220;
    }
    back
    {
        type            empty;
        inGroups        List<word> 1(empty);
        nFaces          12000;
        startFace       36220;
    }
)

// ************************************************************************* //
